Version 4
SHEET 1 1180 692
WIRE 320 -32 96 -32
WIRE 656 -32 320 -32
WIRE 656 -16 656 -32
WIRE 96 0 96 -32
WIRE 320 80 320 -32
WIRE 656 96 656 64
WIRE 656 96 416 96
WIRE 96 112 96 80
WIRE 656 144 656 96
WIRE 416 224 416 96
WIRE 448 224 416 224
WIRE 528 240 512 240
WIRE 320 256 320 160
WIRE 448 256 320 256
WIRE 480 288 480 272
WIRE 400 304 80 304
WIRE 592 304 592 288
WIRE 656 304 656 240
WIRE 656 304 592 304
WIRE 320 336 320 256
WIRE 320 336 256 336
WIRE 656 336 656 304
WIRE 256 352 256 336
WIRE 80 384 80 304
WIRE 112 384 80 384
WIRE 192 400 176 400
WIRE 320 400 320 336
WIRE 112 416 80 416
WIRE 144 448 144 432
WIRE 656 448 656 416
WIRE 80 480 80 416
WIRE 320 528 320 496
WIRE 400 528 400 304
WIRE 400 528 320 528
WIRE 320 544 320 528
WIRE 80 640 80 560
WIRE 320 640 320 624
FLAG 480 208 VCC
FLAG 656 448 0
FLAG 96 -32 VCC
FLAG 480 288 0
FLAG 96 112 0
FLAG 144 368 VCC
FLAG 144 448 0
FLAG 320 640 0
FLAG 80 640 0
SYMBOL Opamps\\UniversalOpamp2 480 240 R0
SYMATTR InstName U1
SYMBOL pnp 528 288 M180
WINDOW 0 67 13 Left 2
WINDOW 3 67 38 Left 2
SYMATTR InstName Q1
SYMBOL res 640 -32 R0
SYMATTR InstName R1
SYMATTR Value {Rc}
SYMBOL res 640 320 R0
SYMATTR InstName RL
SYMATTR Value {RL}
SYMBOL voltage 96 -16 R0
WINDOW 123 0 0 Left 2
WINDOW 39 0 0 Left 2
SYMATTR InstName V1
SYMATTR Value 5V
SYMBOL res 304 64 R0
SYMATTR InstName R3
SYMATTR Value 1k
SYMBOL npn 256 400 R0
SYMATTR InstName Q2
SYMBOL res 304 528 R0
SYMATTR InstName R2
SYMATTR Value 1k
SYMBOL Opamps\\UniversalOpamp2 144 400 R0
SYMATTR InstName U2
SYMBOL voltage 80 464 R0
WINDOW 123 0 0 Left 2
WINDOW 39 0 0 Left 2
SYMATTR InstName V2
SYMATTR Value SINE(1 2 1k)
SYMBOL pnp 592 240 M180
SYMATTR InstName Q3
SYMBOL npn 192 352 R0
SYMATTR InstName Q4
TEXT 784 392 Left 2 !;tran 2m
TEXT 784 312 Left 2 !.param RL  1k
TEXT 784 432 Left 2 !.dc V2 0 5 0.1
TEXT 784 344 Left 2 !.step param Rc list 100 1k 10k
